[General]
network = MTQ
ned-path = .;/home/filippo/Downloads/omnetpp-5.4.1-src-linux/omnetpp-5.4.1/samples/queueinglib
record-eventlog = false
result-dir = results
sim-time-limit = 300s
simtime-resolution = s
**.result-recording-modes = all

**.sourceCExtended.interArrivalTime = exponential(${lambda=2s, 4s}) 
**.sourceCExtended.numberOfPacket = uniform(2, 4) #k  
**.sourceCExtended.energyForPacket = intuniform(0, 2) == 0 ? intuniform(4,4) : intuniform(1,2)    #s = {1,2,4}

**.sourceEExtended.interArrivalTime = exponential(${w = 1s, 2s, 4s}) 
**.sourceEExtended.nEnergyPacket = uniform(10, 20) #S
**.sourceEExtended.energyForPacket = intuniform(0, 2) == 0 ? intuniform(4,4) : intuniform(1,2)    #s = {1,2,4}

**.energyQueueQ2.capacity = ${N=40, 60, 100}   # N = massimo numero di slot di energia 
**.customerQueueQ1.capacity=${K=2, 4, 8, -1}   # K = numero max di utenti che possono stare in coda

**.serverExt.serviceTime = erlang_k(${p=1,2,3}, ${z=0.04s, 0.058s, 0.07s})

repeat = 2
